openpy_fx_tools_dss/Examples/37Bus/xlsx_files/DSS_files_from_xlsx/Line_37BusIEEE.dss
New "Line.l1" bus1=701.1.2.3 bus2=702.1.2.3 linecode=722 length=0.96 phases=3 Seasons=1 Ratings=[400.0] normamps=400 emergamps=600 
New "Line.l2" bus1=702.1.2.3 bus2=705.1.2.3 linecode=724 length=0.4 phases=3 Seasons=1 Ratings=[400.0] normamps=400 emergamps=600 
New "Line.l3" bus1=702.1.2.3 bus2=713.1.2.3 linecode=723 length=0.36 phases=3 Seasons=1 Ratings=[400.0] normamps=400 emergamps=600 
New "Line.l4" bus1=702.1.2.3 bus2=703.1.2.3 linecode=722 length=1.32 phases=3 Seasons=1 Ratings=[400.0] normamps=400 emergamps=600 
New "Line.l5" bus1=703.1.2.3 bus2=727.1.2.3 linecode=724 length=0.24 phases=3 Seasons=1 Ratings=[400.0] normamps=400 emergamps=600 
New "Line.l6" bus1=703.1.2.3 bus2=730.1.2.3 linecode=723 length=0.6 phases=3 Seasons=1 Ratings=[400.0] normamps=400 emergamps=600 
New "Line.l7" bus1=704.1.2.3 bus2=714.1.2.3 linecode=724 length=0.08 phases=3 Seasons=1 Ratings=[400.0] normamps=400 emergamps=600 
New "Line.l8" bus1=704.1.2.3 bus2=720.1.2.3 linecode=723 length=0.8 phases=3 Seasons=1 Ratings=[400.0] normamps=400 emergamps=600 
New "Line.l9" bus1=705.1.2.3 bus2=742.1.2.3 linecode=724 length=0.32 phases=3 Seasons=1 Ratings=[400.0] normamps=400 emergamps=600 
New "Line.l10" bus1=705.1.2.3 bus2=712.1.2.3 linecode=724 length=0.24 phases=3 Seasons=1 Ratings=[400.0] normamps=400 emergamps=600 
New "Line.l11" bus1=706.1.2.3 bus2=725.1.2.3 linecode=724 length=0.28 phases=3 Seasons=1 Ratings=[400.0] normamps=400 emergamps=600 
New "Line.l12" bus1=707.1.2.3 bus2=724.1.2.3 linecode=724 length=0.76 phases=3 Seasons=1 Ratings=[400.0] normamps=400 emergamps=600 
New "Line.l13" bus1=707.1.2.3 bus2=722.1.2.3 linecode=724 length=0.12 phases=3 Seasons=1 Ratings=[400.0] normamps=400 emergamps=600 
New "Line.l14" bus1=708.1.2.3 bus2=733.1.2.3 linecode=723 length=0.32 phases=3 Seasons=1 Ratings=[400.0] normamps=400 emergamps=600 
New "Line.l15" bus1=708.1.2.3 bus2=732.1.2.3 linecode=724 length=0.32 phases=3 Seasons=1 Ratings=[400.0] normamps=400 emergamps=600 
New "Line.l16" bus1=709.1.2.3 bus2=731.1.2.3 linecode=723 length=0.6 phases=3 Seasons=1 Ratings=[400.0] normamps=400 emergamps=600 
New "Line.l17" bus1=709.1.2.3 bus2=708.1.2.3 linecode=723 length=0.32 phases=3 Seasons=1 Ratings=[400.0] normamps=400 emergamps=600 
New "Line.l18" bus1=710.1.2.3 bus2=735.1.2.3 linecode=724 length=0.2 phases=3 Seasons=1 Ratings=[400.0] normamps=400 emergamps=600 
New "Line.l19" bus1=710.1.2.3 bus2=736.1.2.3 linecode=724 length=1.28 phases=3 Seasons=1 Ratings=[400.0] normamps=400 emergamps=600 
New "Line.l20" bus1=711.1.2.3 bus2=741.1.2.3 linecode=723 length=0.4 phases=3 Seasons=1 Ratings=[400.0] normamps=400 emergamps=600 
New "Line.l21" bus1=711.1.2.3 bus2=740.1.2.3 linecode=724 length=0.2 phases=3 Seasons=1 Ratings=[400.0] normamps=400 emergamps=600 
New "Line.l22" bus1=713.1.2.3 bus2=704.1.2.3 linecode=723 length=0.52 phases=3 Seasons=1 Ratings=[400.0] normamps=400 emergamps=600 
New "Line.l23" bus1=714.1.2.3 bus2=718.1.2.3 linecode=724 length=0.52 phases=3 Seasons=1 Ratings=[400.0] normamps=400 emergamps=600 
New "Line.l24" bus1=720.1.2.3 bus2=707.1.2.3 linecode=724 length=0.92 phases=3 Seasons=1 Ratings=[400.0] normamps=400 emergamps=600 
New "Line.l25" bus1=720.1.2.3 bus2=706.1.2.3 linecode=723 length=0.6 phases=3 Seasons=1 Ratings=[400.0] normamps=400 emergamps=600 
New "Line.l26" bus1=727.1.2.3 bus2=744.1.2.3 linecode=723 length=0.28 phases=3 Seasons=1 Ratings=[400.0] normamps=400 emergamps=600 
New "Line.l27" bus1=730.1.2.3 bus2=709.1.2.3 linecode=723 length=0.2 phases=3 Seasons=1 Ratings=[400.0] normamps=400 emergamps=600 
New "Line.l28" bus1=733.1.2.3 bus2=734.1.2.3 linecode=723 length=0.56 phases=3 Seasons=1 Ratings=[400.0] normamps=400 emergamps=600 
New "Line.l29" bus1=734.1.2.3 bus2=737.1.2.3 linecode=723 length=0.64 phases=3 Seasons=1 Ratings=[400.0] normamps=400 emergamps=600 
New "Line.l30" bus1=734.1.2.3 bus2=710.1.2.3 linecode=724 length=0.52 phases=3 Seasons=1 Ratings=[400.0] normamps=400 emergamps=600 
New "Line.l31" bus1=737.1.2.3 bus2=738.1.2.3 linecode=723 length=0.4 phases=3 Seasons=1 Ratings=[400.0] normamps=400 emergamps=600 
New "Line.l32" bus1=738.1.2.3 bus2=711.1.2.3 linecode=723 length=0.4 phases=3 Seasons=1 Ratings=[400.0] normamps=400 emergamps=600 
New "Line.l33" bus1=744.1.2.3 bus2=728.1.2.3 linecode=724 length=0.2 phases=3 Seasons=1 Ratings=[400.0] normamps=400 emergamps=600 
New "Line.l34" bus1=744.1.2.3 bus2=729.1.2.3 linecode=724 length=0.28 phases=3 Seasons=1 Ratings=[400.0] normamps=400 emergamps=600 
New "Line.l35" bus1=799r.1.2.3 bus2=701.1.2.3 linecode=721 length=1.85 phases=3 Seasons=1 Ratings=[400.0] normamps=400 emergamps=600 
New "Line.jumper" bus1=799.2 bus2=799r.2 phases=1 r1=0.001 r0=0.001 rmatrix=[0.001] Seasons=1 Ratings=[400.0] normamps=400 emergamps=600 
